#!/bin/bash

# This shell script runs the test program on a small problem size
# - small enough for you to run a lot of experiments

/homes/phjk/simplesim-wattch/sim-outorder $SSFLAGS ./SHA256-search.ss-benchmark
